Circuit: * Z:\home\magyar-gabor-balazs\KiCAD\akkutolto\LTSpice\akkutolto.asc

Limiting fall time of source v2 to 10
Direct Newton iteration failed to find .op point.  (Use ".option noopiter" to skip.)
Starting Gmin stepping
Gmin = 10
Gmin = 1.07374
Gmin = 0.115292
Gmin = 0.0123794
Gmin = 0.00132923
Gmin = 0.000142725
vernier = 0.5
vernier = 0.666667
Gmin = 4.65514e-005
vernier = 0.888888
Gmin = 7.53781e-006
vernier = 1
Gmin = 8.09366e-007
vernier = 0.5
vernier = 0.25
vernier = 0.125
Gmin = 4.87077e-007
vernier = 0.0625
vernier = 0.03125
vernier = 0.015625
vernier = 0.0078125
vernier = 0.00390625
vernier = 0.00195313
vernier = 0.000976563
vernier = 0.000488281
Gmin = 0
Gmin stepping failed

Starting source stepping with srcstepmethod=0
Source Step = 3.0303%
Source Step = 14.3939%
Source Step = 21.9697%
Source Step = 29.5455%
Source Step = 37.1212%
Source Step = 44.697%
vernier = 0.375
Source Step = 54.5455%
Source Step = 65.9091%
Source Step = 77.2727%
Source Step = 88.6364%
Source Step = 100%
Source stepping succeeded in finding the operating point.


Date: Sat Oct 11 02:08:53 2025
Total elapsed time: 0.880 seconds.

tnom = 27
temp = 27
method = modified trap
totiter = 82541
traniter = 80047
tranpoints = 40024
accept = 40024
rejected = 0
matrix size = 22
fillins = 13
solver = Normal
Matrix Compiler1: 2.85 KB object code size  0.6/0.3/[0.3]
Matrix Compiler2: 2.30 KB object code size  0.3/0.3/[0.3]

