Circuit: * Z:\home\magyar-gabor-balazs\KiCAD\akkutolto\LTSpice\akkutolto.asc

Limiting fall time of source v2 to 10
Direct Newton iteration failed to find .op point.  (Use ".option noopiter" to skip.)
Starting Gmin stepping
Gmin = 10
Gmin = 1.07374
Gmin = 0.115292
Gmin = 0.0123794
Gmin = 0.00132923
Gmin = 0.000142725
vernier = 0.5
vernier = 0.666667
Gmin = 4.98766e-005
vernier = 0.888888
vernier = 1
Gmin = 7.53781e-006
Gmin = 8.09366e-007
Gmin = 8.6905e-008
vernier = 0.5
vernier = 0.25
vernier = 0.125
vernier = 0.0625
vernier = 0.03125
vernier = 0.015625
vernier = 0.0078125
vernier = 0.00390625
Gmin = 6.9524e-008
vernier = 0.00195313
vernier = 0.000976563
vernier = 0.00130208
Gmin = 6.93715e-008
vernier = 0.00173611
vernier = 0.00231481
Gmin = 6.90836e-008
vernier = 0.00308642
Gmin = 6.86189e-008
vernier = 0.00411522
vernier = 0.00548696
Gmin = 6.78646e-008
vernier = 0.00731595
vernier = 0.00975459
Gmin = 6.66865e-008
vernier = 0.0130061
Gmin = 6.48186e-008
vernier = 0.0173415
vernier = 0.023122
Gmin = 6.18739e-008
vernier = 0.0308293
vernier = 0.0411057
Gmin = 5.74846e-008
vernier = 0.0548076
Gmin = 5.10269e-008
vernier = 0.0730768
vernier = 0.0974357
Gmin = 4.20104e-008
vernier = 0.129914
vernier = 0.173219
Gmin = 3.09245e-008
vernier = 0.230959
Gmin = 1.88953e-008
vernier = 0.307945
vernier = 0.410593
Gmin = 8.53891e-009
vernier = 0.547457
vernier = 0.729942
Gmin = 2.49485e-009
vernier = 0.973256
Gmin = 3.63213e-010
vernier = 1
Gmin = 3.92094e-011
Gmin = 4.21008e-012
Gmin = 4.52053e-013
Gmin = 0
Gmin stepping succeeded in finding the operating point.


Date: Sat Dec 27 16:19:25 2025
Total elapsed time: 3.203 seconds.

tnom = 27
temp = 27
method = modified trap
totiter = 82222
traniter = 80232
tranpoints = 40071
accept = 40053
rejected = 18
matrix size = 50
fillins = 85
solver = Normal
Thread vector: 12.0/9.8[3] 4.9/5.6[1] 2.0/3.8[1] 0.5/3.2[1]  2592/500
Matrix Compiler1: 11.42 KB object code size  3.5/2.3/[1.9]
Matrix Compiler2: 6.68 KB object code size  1.4/1.2/[1.0]

