Circuit: * Z:\home\magyar-gabor-balazs\KiCAD\akkutolto\LTSpice\akkutolto.asc

Limiting fall time of source v2 to 10
Direct Newton iteration failed to find .op point.  (Use ".option noopiter" to skip.)
Starting Gmin stepping
Gmin = 10
Gmin = 1.07374
Gmin = 0.115292
Gmin = 0.0123794
Gmin = 0.00132923
Gmin = 0.000142725
vernier = 0.5
vernier = 0.666667
Gmin = 4.98766e-005
vernier = 0.888888
vernier = 1
Gmin = 7.53781e-006
Gmin = 8.09366e-007
vernier = 0.5
Gmin = 1.35789e-007
vernier = 0.25
vernier = 0.125
vernier = 0.0625
vernier = 0.03125
vernier = 0.015625
vernier = 0.0078125
vernier = 0.00390625
vernier = 0.00195313
vernier = 0.000976563
vernier = 0.000488281
Gmin = 1.35789e-007
Gmin = 0
Gmin stepping failed

Starting source stepping with srcstepmethod=0
Source Step = 3.0303%
vernier = 0.25
Source Step = 0.378788%
Source Step = 0.852273%
Source Step = 1.32576%
Source Step = 1.79924%
Source Step = 2.27273%
vernier = 0.0234375
Source Step = 2.91193%
Source Step = 3.62216%
Source Step = 4.33239%
Source Step = 5.04261%
Source Step = 5.75284%
vernier = 0.0351563
Source Step = 6.67614%
Source Step = 7.74148%
Source Step = 8.80682%
Source Step = 9.87216%
Source Step = 10.9375%
vernier = 0.0527344
Source Step = 12.2692%
Source Step = 13.8672%
Source Step = 15.4652%
Source Step = 17.0632%
Source Step = 18.6612%
vernier = 0.0791016
Source Step = 20.5788%
Source Step = 22.9759%
Source Step = 25.3729%
Source Step = 27.7699%
Source Step = 30.1669%
vernier = 0.118652
Source Step = 32.9235%
Source Step = 36.519%
Source Step = 40.1145%
Source Step = 43.71%
Source Step = 47.3056%
vernier = 0.177979
Source Step = 51.2607%
Source Step = 56.6539%
Source Step = 62.0472%
Source Step = 67.4405%
Source Step = 72.8338%
vernier = 0.266968
Source Step = 78.4968%
Source Step = 86.5867%
Source Step = 94.6766%
Source stepping succeeded in finding the operating point.


Date: Sat Oct 11 20:11:57 2025
Total elapsed time: 1.486 seconds.

tnom = 27
temp = 27
method = modified trap
totiter = 84256
traniter = 80365
tranpoints = 40099
accept = 40079
rejected = 20
matrix size = 50
fillins = 91
solver = Normal
Thread vector: 5.4/4.3[3] 2.5/2.5[1] 1.1/2.2[1] 0.2/1.2[1]  2592/500
Matrix Compiler1:     617 opcodes  1.5/[0.6]/0.7
Matrix Compiler2: 6.77 KB object code size  0.5/0.6/[0.5]

