Circuit: * Z:\home\magyar-gabor-balazs\KiCAD\akkutolto\LTSpice\Draft1.asc

WARNING: Node AUDIO is floating.

WARNING: Less than two connections to node AUDIO.  This node is used by C7.
Direct Newton iteration failed to find .op point.  (Use ".option noopiter" to skip.)
Starting Gmin stepping
Gmin = 10
Gmin = 1.07374
Gmin = 0.115292
Gmin = 0.0123794
Gmin = 0.00132923
Gmin = 0.000142725
Gmin = 1.5325e-005
Gmin = 1.6455e-006
Gmin = 1.76685e-007
vernier = 0.5
vernier = 0.666667
Gmin = 6.61545e-008
vernier = 0.888888
vernier = 1
Gmin = 9.33136e-009
Gmin = 1.00195e-009
Gmin = 1.07583e-010
Gmin = 1.15517e-011
Gmin = 1.24035e-012
Gmin = 1.33182e-013
Gmin = 0
Gmin stepping succeeded in finding the operating point.


Date: Thu Oct 23 01:37:01 2025
Total elapsed time: 11.421 seconds.

tnom = 27
temp = 27
method = modified trap
totiter = 2209917
traniter = 2209344
tranpoints = 1049824
accept = 1021353
rejected = 28471
matrix size = 34
fillins = 47
solver = Normal
Matrix Compiler1:     304 opcodes  0.8/[0.4]/0.5
Matrix Compiler2: off  [0.3]/0.4/0.4

